ELEMENTS
H O C N AR
END
SPECIES
H2 H O2 O OH HO2 H2O2 H2O AR N2
END
